data_Co-S4
_audit_creation_date              2020-07-03
_audit_creation_method            'tobacco_3.0'
_symmetry_space_group_name_H-M    'P1'
_symmetry_Int_Tables_number       1
_symmetry_cell_setting            triclinic
loop_
_symmetry_equiv_pos_as_xyz
  x,y,z
_cell_length_a                    20.0000
_cell_length_b                    20.0000
_cell_length_c                    20.0000
_cell_angle_alpha                 90.0000
_cell_angle_beta                  90.0000
_cell_angle_gamma                 90.0000
loop_
_atom_site_label
_atom_site_type_symbol
_atom_site_fract_x
_atom_site_fract_y
_atom_site_fract_z
_atom_site_U_iso_or_equiv
_atom_site_adp_type
_atom_site_occupancy
_atom_site_charge
X1         S    0.2987100000    0.5921700000    0.2470600000   0.00000  Uiso   1.00            1.00
X2         S    0.2990800000    0.7283500000    0.2489300000   0.00000  Uiso   1.00            1.00
X3         S    0.2944400000    0.5902200000    0.3894800000   0.00000  Uiso   1.00            1.00
X4         S    0.2948100000    0.7264000000    0.3913600000   0.00000  Uiso   1.00            1.00
Cr5       Co    0.2924800000    0.6593000000    0.3190800000   0.00000  Uiso   1.00            1.00
loop_
_geom_bond_atom_site_label_1
_geom_bond_atom_site_label_2
_geom_bond_distance
_geom_bond_site_symmetry_2
_ccdc_geom_bond_type
X1          Cr5 1.973       .   S
X2          Cr5 1.973       .   S
X3          Cr5 1.973       .   S
X4          Cr5 1.973       .   S
