data_CuO3
_audit_creation_date              2020-07-01
_audit_creation_method            'tobacco_3.0'
_symmetry_space_group_name_H-M    'P1'
_symmetry_Int_Tables_number       1
_symmetry_cell_setting            triclinic
loop_
_symmetry_equiv_pos_as_xyz
  x,y,z
_cell_length_a                    10.0000
_cell_length_b                    10.0000
_cell_length_c                    10.0000
_cell_angle_alpha                 90.0000
_cell_angle_beta                  90.0000
_cell_angle_gamma                 90.0000
loop_
_atom_site_label
_atom_site_type_symbol
_atom_site_fract_x
_atom_site_fract_y
_atom_site_fract_z
_atom_site_U_iso_or_equiv
_atom_site_adp_type
_atom_site_occupancy
_atom_site_charge
Cu1       Cu    0.5000000000    0.5000000000    0.0000000000   0.00000  Uiso   1.00               0
X2         O    0.5000000000    0.7000000000    0.0000000000   0.00000  Uiso   1.00               0
X3         O    0.3267949190    0.4000000000    0.0000000000   0.00000  Uiso   1.00               0
X4         O    0.6732058100    0.4000000000    0.0000000000   0.00000  Uiso   1.00               0
loop_
_geom_bond_atom_site_label_1
_geom_bond_atom_site_label_2
_geom_bond_distance
_geom_bond_site_symmetry_2
_ccdc_geom_bond_type
Cu1          X2 2.000       .   A
Cu1          X3 2.000       .   A
Cu1          X4 2.000       .   A
