data_hcb_v1-CuO3_1B_4H_Ch
_audit_creation_date              2020-07-01
_audit_creation_method            'tobacco_3.0'
_symmetry_space_group_name_H-M    'P1'
_symmetry_Int_Tables_number       1
_symmetry_cell_setting            triclinic
loop_
_symmetry_equiv_pos_as_xyz
  x,y,z
_cell_length_a                    17.59772175923007
_cell_length_b                    17.59774602743888
_cell_length_c                    20.322130550652982
_cell_angle_alpha                 90.0
_cell_angle_beta                  90.0
_cell_angle_gamma                 120.00030831256971
loop_
_atom_site_label
_atom_site_type_symbol
_atom_site_fract_x
_atom_site_fract_y
_atom_site_fract_z
_atom_site_charge
Cu1       Cu    0.3333000000    0.6667001381   -0.0000000000             0.0
O2         O    0.2020666345    0.6010831258    0.0000000000         -0.8345
O3         O    0.3989168742    0.7979333227   -0.0000000000         -0.8333
O4         O    0.3989164913    0.6010835515    0.0000000000         -0.8333
Cu5       Cu    0.6666321222    0.3333663651    0.0000000000             0.0
O6         O    0.7978654877    0.3989833774    0.0000000000         -0.8333
O7         O    0.6010152479    0.2021331804    0.0000000000         -0.8333
O8         O    0.6010156309    0.3989829516    0.0000000000         -0.8333
C29        C    0.3989163696    0.9495081394    0.0000001966          0.1667
C30        C    0.4494410806    0.8989825131    0.0000000000          0.1667
C31        C    0.5504907721    0.9495076253   -0.0000001966          0.1667
C32        C    0.6010157525    1.0505583638   -0.0000001966          0.1667
C33        C    0.5504910415    1.1010839901    0.0000000000          0.1667
C34        C    0.4494413501    1.0505588779    0.0000001966          0.1667
H35        H    0.3241133513    0.9121064329    0.0000003421          0.1667
H36        H    0.5878921815    0.9121103353   -0.0000003421          0.1667
H37        H    0.6758187708    1.0879600702   -0.0000003421          0.1667
H38        H    0.4120399407    1.0879561679    0.0000003421          0.1667
C19        C   -0.0505581914    0.4747712284    0.0656271909          0.1667
C20        C   -0.1010848168    0.4495080189    0.0000000000          0.1667
C21        C   -0.0505605643    0.4747700420   -0.0656271909          0.1667
C22        C    0.0504903136    0.5252952747   -0.0656271909          0.1667
C23        C    0.1010169389    0.5505584842    0.0000000000          0.1667
C24        C    0.0504926864    0.5252964611    0.0656271909          0.1667
H25        H   -0.0879592615    0.4560707698    0.1142083582          0.1667
H26        H   -0.0879585938    0.4560711036   -0.1142062813          0.1667
H27        H    0.0878913836    0.5439957334   -0.1142083582          0.1667
H28        H    0.0878907160    0.5439953995    0.1142062813          0.1667
C9         C    0.4747041612    0.5252953339    0.0656271909          0.1667
C10        C    0.4494410750    0.5505586027    0.0000000000          0.1667
C11        C    0.4747029748    0.5252965204   -0.0656271909          0.1667
C12        C    0.5252279609    0.4747711692   -0.0656271909          0.1667
C13        C    0.5504910472    0.4495079004    0.0000000000          0.1667
C14        C    0.5252291473    0.4747699828    0.0656271909          0.1667
H15        H    0.4560037938    0.5439958365    0.1142083582          0.1667
H16        H    0.4560041277    0.5439955027   -0.1142062813          0.1667
H17        H    0.5439283284    0.4560706667   -0.1142083582          0.1667
H18        H    0.5439279945    0.4560710005    0.1142062813          0.1667
loop_
_geom_bond_atom_site_label_1
_geom_bond_atom_site_label_2
_geom_bond_distance
_geom_bond_site_symmetry_2
_ccdc_geom_bond_type
Cu1          O2 2.000       .   A
Cu1          O3 2.000       .   A
Cu1          O4 2.000       .   A
O2          C23 1.540       .   S
O3          C30 1.540       .   S
O4          C10 1.540       .   S
Cu5          O6 2.000       .   A
Cu5          O7 2.000       .   A
Cu5          O8 2.000       .   A
O6          C20 1.540   1_655   S
O7          C33 1.540   1_545   S
O8          C13 1.540       .   S
C29         C30 1.540       .   A
C29         C34 1.540       .   A
C29         H35 1.140       .   S
C30         C31 1.540       .   A
C31         C32 1.540       .   A
C31         H36 1.140       .   S
C32         C33 1.540       .   A
C32         H37 1.140       .   S
C33         C34 1.540       .   A
C34         H38 1.140       .   S
C19         C20 1.540       .   A
C19         C24 1.540       .   A
C19         H25 1.140       .   S
C20         C21 1.540       .   A
C21         C22 1.540       .   A
C21         H26 1.140       .   S
C22         C23 1.540       .   A
C22         H27 1.140       .   S
C23         C24 1.540       .   A
C24         H28 1.140       .   S
C9          C10 1.540       .   A
C9          C14 1.540       .   A
C9          H15 1.140       .   S
C10         C11 1.540       .   A
C11         C12 1.540       .   A
C11         H16 1.140       .   S
C12         C13 1.540       .   A
C12         H17 1.140       .   S
C13         C14 1.540       .   A
C14         H18 1.140       .   S
