data_hna_v1-CuO3_v2-CuO3_1B_4H_Ch
_audit_creation_date              2020-07-01
_audit_creation_method            'tobacco_3.0'
_symmetry_space_group_name_H-M    'P1'
_symmetry_Int_Tables_number       1
_symmetry_cell_setting            triclinic
loop_
_symmetry_equiv_pos_as_xyz
  x,y,z
_cell_length_a                    40.309280282884714
_cell_length_b                    40.309467090591575
_cell_length_c                    20.684216293472147
_cell_angle_alpha                 89.99999999874028
_cell_angle_beta                  90.00000000834481
_cell_angle_gamma                 90.0000061488954
loop_
_atom_site_label
_atom_site_type_symbol
_atom_site_fract_x
_atom_site_fract_y
_atom_site_fract_z
_atom_site_charge
Cu1       Cu    0.4125999418    0.9125999844    0.0000000000             0.0
O2         O    0.4254398783    0.8646740168   -0.0000000272         -0.8333
O3         O    0.3646746744    0.9254433041    0.0000000160         -0.8333
O4         O    0.4476854473    0.9476826792    0.0000000112         -0.8333
Cu5       Cu    0.9125896686    0.5903854148    0.0000000234             0.0
O6         O    0.8646635930    0.5775451015    0.0000000141         -0.8333
O7         O    0.9254326219    0.6383105769    0.0000000443         -0.8333
O8         O    0.9476728379    0.5553003912    0.0000000118         -0.8333
Cu9       Cu    0.1758065145    0.9671409052    0.0000000739             0.0
O10        O    0.1427636148    0.9301282302    0.0000000829         -0.8333
O11        O    0.1602739020    1.0142630972    0.0000000763         -0.8333
O12        O    0.2243821616    0.9570312678    0.0000000626         -0.8333
Cu13      Cu    0.9671287151    0.8271778208    0.0000001092             0.0
O14        O    0.9301163252    0.8602210709    0.0000001167         -0.8333
O15        O    1.0142513402    0.8427097203    0.0000001094         -0.8333
O16        O    0.9570183596    0.7786025364    0.0000001015         -0.8333
Cu17      Cu    0.8271650648    0.0358626976    0.0000001035             0.0
O18        O    0.8602078653    0.0728754612    0.0000001026         -0.8333
O19        O    0.8426978037   -0.0112594528    0.0000001090         -0.8333
O20        O    0.7785893906    0.0459722048    0.0000000988         -0.8333
Cu21      Cu    0.0358357770    0.1758196959    0.0000000826             0.0
O22        O    0.0728486052    0.1427769368    0.0000000875         -0.8333
O23        O   -0.0112866420    0.1602871714    0.0000000943         -0.8333
O24        O    0.0459454883    0.2243951144    0.0000000661         -0.8333
Cu25      Cu    0.5903965645    0.0903889090    0.0000000562             0.0
O26        O    0.6383221178    0.0775466569    0.0000000746         -0.8333
O27        O    0.5775555604    0.1383145907    0.0000000406         -0.8333
O28        O    0.5553119683    0.0553053048    0.0000000533         -0.8333
Cu29      Cu    0.0903687615    0.4126022563    0.9999999480             0.0
O30        O    0.0775264503    0.3646769221    0.9999999804         -0.8333
O31        O    0.1382946651    0.4254432117    0.9999998973         -0.8333
O32        O    0.0552849943    0.4476866819    0.9999999663         -0.8333
Cu33      Cu    0.6758157554    0.5358692735    0.9999999645             0.0
O34        O    0.6427710899    0.5728803649    0.9999999484         -0.8333
O35        O    0.6602853912    0.4887463371    0.9999999664         -0.8333
O36        O    0.7243909201    0.5459812389    0.9999999787         -0.8333
Cu37      Cu    0.4671169151    0.6758128203    0.9999998671             0.0
O38        O    0.4301047259    0.6427693375    0.9999998225         -0.8333
O39        O    0.5142396345    0.6602812172    0.9999998906         -0.8333
O40        O    0.4570062645    0.7243880412    0.9999998881         -0.8333
Cu41      Cu    0.5358690131    0.3271787990    0.9999999406             0.0
O42        O    0.5728801312    0.3602234817    0.9999999607         -0.8333
O43        O    0.4887457903    0.3427088746    0.9999998934         -0.8333
O44        O    0.5459812384    0.2786039060    0.9999999677         -0.8333
Cu45      Cu    0.3271546557    0.4671292869    0.9999996842             0.0
O46        O    0.3601992346    0.4301181181    0.9999996905         -0.8333
O47        O    0.3426851303    0.5142521869    0.9999996728         -0.8333
O48        O    0.2785794673    0.4570174352    0.9999996894         -0.8333
C219       C    0.4086763767    0.3971545935    1.0644781269          0.1667
C220       C    0.3928795158    0.4078961407    0.9999997421          0.1667
C221       C    0.4086756515    0.3971550435    0.9355214072          0.1667
C222       C    0.4402686481    0.3756723992    0.9355214571          0.1667
C223       C    0.4560655091    0.3649308520    0.9999998419          0.1667
C224       C    0.4402693734    0.3756719491    1.0644781768          0.1667
H225       H    0.3969831334    0.4051057953    1.1122088423          0.1667
H226       H    0.3969833711    0.4051055587    0.8877926954          0.1667
H227       H    0.4519618915    0.3677211974    0.8877907416          0.1667
H228       H    0.4519616538    0.3677214340    1.1122068886          0.1667
C209       C    0.3697813307    0.6129137981    0.9999997747          0.1667
C210       C    0.4078826386    0.6101002393    0.9999997844          0.1667
C211       C    0.4244962360    0.5756972034    0.9999997573          0.1667
C212       C    0.4030085255    0.5441077262    0.9999997206          0.1667
C213       C    0.3649072177    0.5469212850    0.9999997109          0.1667
C214       C    0.3482936203    0.5813243210    0.9999997379          0.1667
H215       H    0.3574829534    0.6383809806    0.9999997948          0.1667
H216       H    0.4526992144    0.5736135284    0.9999997645          0.1667
H217       H    0.4153069029    0.5186405438    0.9999997005          0.1667
H218       H    0.3200906419    0.5834079960    0.9999997308          0.1667
C199       C    0.6273248339    0.4402803186    0.9355216044          0.1667
C200       C    0.6380674103    0.4560764687    0.9999999650          0.1667
C201       C    0.6273253376    0.4402810594    1.0644783241          0.1667
C202       C    0.6058406885    0.4086895002    1.0644783227          0.1667
C203       C    0.5950981121    0.3928933501    0.9999999622          0.1667
C204       C    0.6058401848    0.4086887593    0.9355216030          0.1667
H205       H    0.6352767578    0.4519730241    0.8877908710          0.1667
H206       H    0.6352766145    0.4519728137    1.1122070180          0.1667
H207       H    0.5978887645    0.3969967947    1.1122090561          0.1667
H208       H    0.5978889078    0.3969970051    0.8877929092          0.1667
C189       C    0.5943013788    0.6058395692    1.0644782865          0.1667
C190       C    0.6100981444    0.5950978312    0.9999999337          0.1667
C191       C    0.5943021278    0.6058390530    0.9355215668          0.1667
C192       C    0.5627093457    0.6273220128    0.9355215526          0.1667
C193       C    0.5469125801    0.6380637508    0.9999999053          0.1667
C194       C    0.5627085966    0.6273225290    1.0644782723          0.1667
H195       H    0.6059945339    0.5978882752    1.1122090256          0.1667
H196       H    0.6059943377    0.5978883966    0.8877928787          0.1667
H197       H    0.5510161906    0.6352733068    0.8877908134          0.1667
H198       H    0.5510163867    0.6352731854    1.1122069604          0.1667
C179       C    0.2270729434    0.4454248680    1.0644781256          0.1667
C180       C    0.2457097013    0.4496193613    0.9999997381          0.1667
C181       C    0.2270738242    0.4454248167    0.9355214059          0.1667
C182       C    0.1898011891    0.4370357788    0.9355214611          0.1667
C183       C    0.1711644311    0.4328412856    0.9999998486          0.1667
C184       C    0.1898003083    0.4370358302    1.0644781808          0.1667
H185       H    0.2408683330    0.4485299205    1.1122088390          0.1667
H186       H    0.2408680964    0.4485294329    0.8877926921          0.1667
H187       H    0.1760057995    0.4339307263    0.8877907477          0.1667
H188       H    0.1760060361    0.4339312139    1.1122068946          0.1667
C169       C    0.5982415412    0.1970882224    0.0000001246          0.1667
C170       C    0.5701571698    0.1711867188    0.0000000235          0.1667
C171       C    0.5336840279    0.1825577448   -0.0000000969          0.1667
C172       C    0.5252952576    0.2198302743   -0.0000001163          0.1667
C173       C    0.5533796290    0.2457317779   -0.0000000153          0.1667
C174       C    0.5898527709    0.2343607519    0.0000001052          0.1667
H175       H    0.6252411397    0.1886707096    0.0000002137          0.1667
H176       H    0.5128949217    0.1633859038   -0.0000001717          0.1667
H177       H    0.4982956591    0.2282477871   -0.0000002055          0.1667
H178       H    0.6106418771    0.2535325929    0.0000001800          0.1667
C159       C    0.0575406659    0.2759004295    0.0644783945          0.1667
C160       C    0.0533450921    0.2572639612    0.0000000460          0.1667
C161       C    0.0575403956    0.2758995500   -0.0644783252          0.1667
C162       C    0.0659312728    0.3131716071   -0.0644783480          0.1667
C163       C    0.0701268465    0.3318080754    0.0000000005          0.1667
C164       C    0.0659315430    0.3131724866    0.0644783717          0.1667
H165       H    0.0544350516    0.2621052533    0.1122091368          0.1667
H166       H    0.0544349796    0.2621054922   -0.1122070102          0.1667
H167       H    0.0690368870    0.3269667833   -0.1122090903          0.1667
H168       H    0.0690369590    0.3269665444    0.1122070567          0.1667
C149       C    0.7270915152    0.0575644990    0.0644784498          0.1667
C150       C    0.7457281500    0.0533693378    0.0000000931          0.1667
C151       C    0.7270923890    0.0575642697   -0.0644782699          0.1667
C152       C    0.6898199932    0.0659543627   -0.0644782764          0.1667
C153       C    0.6711833584    0.0701495239    0.0000000803          0.1667
C154       C    0.6898191194    0.0659545920    0.0644784433          0.1667
H155       H    0.7408868188    0.0544591598    0.1122091861          0.1667
H156       H    0.7408865701    0.0544591590   -0.1122069609          0.1667
H157       H    0.6760246896    0.0690597019   -0.1122090127          0.1667
H158       H    0.6760249383    0.0690597027    0.1122071343          0.1667
C139       C    0.9272750985    0.0784807024    0.0000001081          0.1667
C140       C    0.8928710858    0.0950935618    0.0000001005          0.1667
C141       C    0.8900565989    0.1331941757    0.0000000909          0.1667
C142       C    0.9216461248    0.1546819302    0.0000000889          0.1667
C143       C    0.9560501375    0.1380690708    0.0000000964          0.1667
C144       C    0.9588646243    0.0999684569    0.0000001061          0.1667
H145       H    0.9293585498    0.0502763518    0.0000001152          0.1667
H146       H    0.8645907819    0.1454921610    0.0000000853          0.1667
H147       H    0.9195626734    0.1828862808    0.0000000817          0.1667
H148       H    0.9843304413    0.0876704716    0.0000001117          0.1667
C129       C    0.8697929786    0.8900780054    0.0000001141          0.1667
C130       C    0.9078943264    0.8928910314    0.0000001148          0.1667
C131       C    0.9245084122    0.9272938351    0.0000001135          0.1667
C132       C    0.9030211503    0.9588836127    0.0000001116 0.15949999999999998
C133       C    0.8649198025    0.9560705866    0.0000001110          0.1667
C134       C    0.8483057167    0.9216677830    0.0000001122          0.1667
H135       H    0.8574942397    0.8646109949    0.0000001150          0.1667
H136       H    0.9527114202    0.9293771157    0.0000001140          0.1667
H137       H    0.9153198892    0.9843506232    0.0000001107          0.1667
H138       H    0.8201027086    0.9195845024    0.0000001117          0.1667
C119       C    0.1546619380    1.0813359352    0.0000000825          0.1667
C120       C    0.1380502984    1.0469314522    0.0000000791          0.1667
C121       C    0.0999496140    1.0441155340    0.0000000785          0.1667
C122       C    0.0784605692    1.0757040988    0.0000000812          0.1667
C123       C    0.0950722088    1.1101085818    0.0000000846          0.1667
C124       C    0.1331728932    1.1129245000    0.0000000853          0.1667
H125       H    0.1828663407    1.0834204460    0.0000000830          0.1667
H126       H    0.0876525317    1.0186493688    0.0000000759          0.1667
H127       H    0.0502561665    1.0736195880    0.0000000807          0.1667
H128       H    0.1454699755    1.1383906652    0.0000000878          0.1667
C109       C    0.0627132065    0.8756751672   -0.0644782604          0.1667
C110       C    0.0469182016    0.8649308533    0.0000001027          0.1667
C111       C    0.0627124726    0.8756746614    0.0644784593          0.1667
C112       C    0.0943017485    0.8971627833    0.0644784528          0.1667
C113       C    0.1100967534    0.9079070972    0.0000000897          0.1667
C114       C    0.0943024824    0.8971632891   -0.0644782669          0.1667
H115       H    0.0510213436    0.8677219586   -0.1122089919          0.1667
H116       H    0.0510215659    0.8677220985    0.1122071550          0.1667
H117       H    0.1059936114    0.9051159919    0.1122091843          0.1667
H118       H    0.1059933891    0.9051158520   -0.1122069627          0.1667
C99        C    1.0113675985    0.5383960163    0.0000000107          0.1667
C100       C    0.9744641249    0.5285087176    0.0000000005          0.1667
C101       C    0.9645754425    0.4916062378   -0.0000000212          0.1667
C102       C    0.9915902336    0.4645910568   -0.0000000326          0.1667
C103       C    1.0284937073    0.4744783555   -0.0000000224          0.1667
C104       C    1.0383823897    0.5113808353   -0.0000000007          0.1667
H105       H    1.0186877920    0.5657134364    0.0000000267          0.1667
H106       H    0.9372593095    0.4842865266   -0.0000000287          0.1667
H107       H    0.9842700401    0.4372736368   -0.0000000486          0.1667
H108       H    1.0656985227    0.5187005465    0.0000000068          0.1667
C89        C    0.9047515141    0.6970882007    0.0000000955          0.1667
C90        C    0.9328339838    0.6711846413    0.0000000577          0.1667
C91        C    0.9693079604    0.6825529973    0.0000000351          0.1667
C92        C    0.9776994673    0.7198249126    0.0000000503          0.1667
C93        C    0.9496169976    0.7457284720    0.0000000881          0.1667
C94        C    0.9131430210    0.7343601160    0.0000001107          0.1667
H95        H    0.8777512977    0.6886726644    0.0000001122          0.1667
H96        H    0.9900956590    0.6633796345    0.0000000071          0.1667
H97        H    1.0046996838    0.7282404488    0.0000000335          0.1667
H98        H    0.8923553224    0.7535334788    0.0000001387          0.1667
C79        C    0.8058999319    0.5982356477    0.0000000364          0.1667
C80        C    0.8318003260    0.5701502781    0.0000000058          0.1667
C81        C    0.8204276508    0.5336778006   -0.0000000342          0.1667
C82        C    0.7831545813    0.5252906928   -0.0000000436          0.1667
C83        C    0.7572541871    0.5533760623   -0.0000000130          0.1667
C84        C    0.7686268624    0.5898485398    0.0000000270          0.1667
H85        H    0.8143186655    0.6252347543    0.0000000660          0.1667
H86        H    0.8395986706    0.5128879557   -0.0000000568          0.1667
H87        H    0.7747358477    0.4982915861   -0.0000000732          0.1667
H88        H    0.7494558426    0.6106383848    0.0000000496          0.1667
C69        C    0.5113864522    0.9645912630    0.0000000404          0.1667
C70        C    0.4744832299    0.9744794919    0.0000000217          0.1667
C71        C    0.4645954855    1.0113822209    0.0000000135          0.1667
C72        C    0.4916109634    1.0383967210    0.0000000240          0.1667
C73        C    0.5285141857    1.0285084921    0.0000000428          0.1667
C74        C    0.5384019301    0.9916057631    0.0000000510          0.1667
H75        H    0.5187059513    0.9372736585    0.0000000465          0.1667
H76        H    0.4372795386    1.0187026206   -0.0000000004          0.1667
H77        H    0.4842914643    1.0657143255    0.0000000180          0.1667
H78        H    0.5657178770    0.9842853634    0.0000000649          0.1667
C59        C    0.4370297644    0.8131670663    0.0644783016          0.1667
C60        C    0.4328361178    0.8318039673   -0.0000000470          0.1667
C61        C    0.4370294248    0.8131679300   -0.0644784181          0.1667
C62        C    0.4454163784    0.7758949916   -0.0644784406          0.1667
C63        C    0.4496100250    0.7572580906   -0.0000000921          0.1667
C64        C    0.4454167180    0.7758941280    0.0644782790          0.1667
H65        H    0.4339256281    0.8269625745    0.1122090438          0.1667
H66        H    0.4339254352    0.8269623081   -0.1122071031          0.1667
H67        H    0.4485205147    0.7620994834   -0.1122091829          0.1667
H68        H    0.4485207076    0.7620997498    0.1122069641          0.1667
C49        C    0.3058962268    0.9047632938    0.0000000344          0.1667
C50        C    0.3318003681    0.9328452129    0.0000000269          0.1667
C51        C    0.3204325593    0.9693192050    0.0000000318          0.1667
C52        C    0.2831606092    0.9777112780    0.0000000442          0.1667
C53        C    0.2572564680    0.9496293589    0.0000000517          0.1667
C54        C    0.2686242767    0.9131553668    0.0000000467          0.1667
H55        H    0.3143113580    0.8777630659    0.0000000307          0.1667
H56        H    0.3396063528    0.9901064961    0.0000000263          0.1667
H57        H    0.2747454781    1.0047115059    0.0000000478          0.1667
H58        H    0.2494504832    0.8923680758    0.0000000523          0.1667
loop_
_geom_bond_atom_site_label_1
_geom_bond_atom_site_label_2
_geom_bond_distance
_geom_bond_site_symmetry_2
_ccdc_geom_bond_type
Cu1          O2 2.000       .   A
Cu1          O3 2.000       .   A
Cu1          O4 2.000       .   A
O2          C60 1.358       .   S
O3          C50 1.358       .   S
O4          C70 1.528       .   S
Cu5          O6 2.000       .   A
Cu5          O7 2.000       .   A
Cu5          O8 2.000       .   A
O6          C80 1.358       .   S
O7          C90 1.358       .   S
O8         C100 1.527       .   S
Cu9         O10 2.000       .   A
Cu9         O11 2.000       .   A
Cu9         O12 2.000       .   A
O10        C113 1.593       .   S
O11        C120 1.593       .   S
O12         C53 1.358       .   S
Cu13        O14 2.000       .   A
Cu13        O15 2.000       .   A
Cu13        O16 2.000       .   A
O14        C130 1.593       .   S
O15        C110 1.593   1_655   S
O16         C93 1.358       .   S
Cu17        O18 2.000       .   A
Cu17        O19 2.000       .   A
Cu17        O20 2.000       .   A
O18        C140 1.592       .   S
O19        C133 1.593   1_545   S
O20        C150 1.358       .   S
Cu21        O22 2.000       .   A
Cu21        O23 2.000       .   A
Cu21        O24 2.000       .   A
O22        C123 1.593   1_545   S
O23        C143 1.592   1_455   S
O24        C160 1.358       .   S
Cu25        O26 2.000       .   A
Cu25        O27 2.000       .   A
Cu25        O28 2.000       .   A
O26        C153 1.358       .   S
O27        C170 1.358       .   S
O28         C73 1.528   1_545   S
Cu29        O30 2.000       .   A
Cu29        O31 2.000       .   A
Cu29        O32 2.000       .   A
O30        C163 1.358   1_556   S
O31        C183 1.358       .   S
O32        C103 1.527   1_456   S
Cu33        O34 2.000       .   A
Cu33        O35 2.000       .   A
Cu33        O36 2.000       .   A
O34        C190 1.593       .   S
O35        C200 1.593       .   S
O36         C83 1.358   1_556   S
Cu37        O38 2.000       .   A
Cu37        O39 2.000       .   A
Cu37        O40 2.000       .   A
O38        C210 1.593       .   S
O39        C193 1.593       .   S
O40         C63 1.358   1_556   S
Cu41        O42 2.000       .   A
Cu41        O43 2.000       .   A
Cu41        O44 2.000       .   A
O42        C203 1.593       .   S
O43        C223 1.593       .   S
O44        C173 1.358   1_556   S
Cu45        O46 2.000       .   A
Cu45        O47 2.000       .   A
Cu45        O48 2.000       .   A
O46        C220 1.593       .   S
O47        C213 1.593       .   S
O48        C180 1.358       .   S
C219       C220 1.540       .   A
C219       C224 1.540       .   A
C219       H225 1.140       .   S
C220       C221 1.540       .   A
C221       C222 1.540       .   A
C221       H226 1.140       .   S
C222       C223 1.540       .   A
C222       H227 1.140       .   S
C223       C224 1.540       .   A
C224       H228 1.140       .   S
C209       C210 1.540       .   A
C209       C214 1.540       .   A
C209       H215 1.140       .   S
C210       C211 1.540       .   A
C211       C212 1.540       .   A
C211       H216 1.140       .   S
C212       C213 1.540       .   A
C212       H217 1.140       .   S
C213       C214 1.540       .   A
C214       H218 1.140       .   S
C199       C200 1.540       .   A
C199       C204 1.540       .   A
C199       H205 1.140       .   S
C200       C201 1.540       .   A
C201       C202 1.540       .   A
C201       H206 1.140       .   S
C202       C203 1.540       .   A
C202       H207 1.140       .   S
C203       C204 1.540       .   A
C204       H208 1.140       .   S
C189       C190 1.540       .   A
C189       C194 1.540       .   A
C189       H195 1.140       .   S
C190       C191 1.540       .   A
C191       C192 1.540       .   A
C191       H196 1.140       .   S
C192       C193 1.540       .   A
C192       H197 1.140       .   S
C193       C194 1.540       .   A
C194       H198 1.140       .   S
C179       C180 1.540       .   A
C179       C184 1.540       .   A
C179       H185 1.140       .   S
C180       C181 1.540       .   A
C181       C182 1.540       .   A
C181       H186 1.140       .   S
C182       C183 1.540       .   A
C182       H187 1.140       .   S
C183       C184 1.540       .   A
C184       H188 1.140       .   S
C169       C170 1.540       .   A
C169       C174 1.540       .   A
C169       H175 1.140       .   S
C170       C171 1.540       .   A
C171       C172 1.540       .   A
C171       H176 1.140       .   S
C172       C173 1.540       .   A
C172       H177 1.140       .   S
C173       C174 1.540       .   A
C174       H178 1.140       .   S
C159       C160 1.540       .   A
C159       C164 1.540       .   A
C159       H165 1.140       .   S
C160       C161 1.540       .   A
C161       C162 1.540       .   A
C161       H166 1.140       .   S
C162       C163 1.540       .   A
C162       H167 1.140       .   S
C163       C164 1.540       .   A
C164       H168 1.140       .   S
C149       C150 1.540       .   A
C149       C154 1.540       .   A
C149       H155 1.140       .   S
C150       C151 1.540       .   A
C151       C152 1.540       .   A
C151       H156 1.140       .   S
C152       C153 1.540       .   A
C152       H157 1.140       .   S
C153       C154 1.540       .   A
C154       H158 1.140       .   S
C139       C140 1.540       .   A
C139       C144 1.540       .   A
C139       H145 1.140       .   S
C140       C141 1.540       .   A
C141       C142 1.540       .   A
C141       H146 1.140       .   S
C142       C143 1.540       .   A
C142       H147 1.140       .   S
C143       C144 1.540       .   A
C144       H148 1.140       .   S
C129       C130 1.540       .   A
C129       C134 1.540       .   A
C129       H135 1.140       .   S
C130       C131 1.540       .   A
C131       C132 1.540       .   A
C131       H136 1.140       .   S
C132       C133 1.540       .   A
C132       H137 1.140       .   S
C133       C134 1.540       .   A
C134       H138 1.140       .   S
C119       C120 1.540       .   A
C119       C124 1.540       .   A
C119       H125 1.140       .   S
C120       C121 1.540       .   A
C121       C122 1.540       .   A
C121       H126 1.140       .   S
C122       C123 1.540       .   A
C122       H127 1.140       .   S
C123       C124 1.540       .   A
C124       H128 1.140       .   S
C109       C110 1.540       .   A
C109       C114 1.540       .   A
C109       H115 1.140       .   S
C110       C111 1.540       .   A
C111       C112 1.540       .   A
C111       H116 1.140       .   S
C112       C113 1.540       .   A
C112       H117 1.140       .   S
C113       C114 1.540       .   A
C114       H118 1.140       .   S
C99        C100 1.540       .   A
C99        C104 1.540       .   A
C99        H105 1.140       .   S
C100       C101 1.540       .   A
C101       C102 1.540       .   A
C101       H106 1.140       .   S
C102       C103 1.540       .   A
C102       H107 1.140       .   S
C103       C104 1.540       .   A
C104       H108 1.140       .   S
C89         C90 1.540       .   A
C89         C94 1.540       .   A
C89         H95 1.140       .   S
C90         C91 1.540       .   A
C91         C92 1.540       .   A
C91         H96 1.140       .   S
C92         C93 1.540       .   A
C92         H97 1.140       .   S
C93         C94 1.540       .   A
C94         H98 1.140       .   S
C79         C80 1.540       .   A
C79         C84 1.540       .   A
C79         H85 1.140       .   S
C80         C81 1.540       .   A
C81         C82 1.540       .   A
C81         H86 1.140       .   S
C82         C83 1.540       .   A
C82         H87 1.140       .   S
C83         C84 1.540       .   A
C84         H88 1.140       .   S
C69         C70 1.540       .   A
C69         C74 1.540       .   A
C69         H75 1.140       .   S
C70         C71 1.540       .   A
C71         C72 1.540       .   A
C71         H76 1.140       .   S
C72         C73 1.540       .   A
C72         H77 1.140       .   S
C73         C74 1.540       .   A
C74         H78 1.140       .   S
C59         C60 1.540       .   A
C59         C64 1.540       .   A
C59         H65 1.140       .   S
C60         C61 1.540       .   A
C61         C62 1.540       .   A
C61         H66 1.140       .   S
C62         C63 1.540       .   A
C62         H67 1.140       .   S
C63         C64 1.540       .   A
C64         H68 1.140       .   S
C49         C50 1.540       .   A
C49         C54 1.540       .   A
C49         H55 1.140       .   S
C50         C51 1.540       .   A
C51         C52 1.540       .   A
C51         H56 1.140       .   S
C52         C53 1.540       .   A
C52         H57 1.140       .   S
C53         C54 1.540       .   A
C54         H58 1.140       .   S
